[TITLE]

[JUNCTIONS]
J10	4812.729980	;New Junction
J100	4786.548340	;New Junction
J1000	4713.877930	;New Junction
J1002	4718.832031	;New Junction
J1004	4733.989746	;New Junction
J1006	4733.694336	;New Junction
J1008	4743.996094	;New Junction
J1010	4741.535156	;New Junction
J1012	4741.305664	;New Junction
J1014	4749.409668	;New Junction
J1016	4755.971191	;New Junction
J1018	4744.291504	;New Junction
J102	4781.889648	;New Junction
J1020	4749.475098	;New Junction
J1022	4755.314941	;New Junction
J1024	4752.460938	;New Junction
J1026	4756.135254	;New Junction
J1028	4753.772949	;New Junction
J1030	4739.566895	;New Junction
J1032	4738.582520	;New Junction
J1034	4734.973633	;New Junction
J1036	4734.055176	;New Junction
J1038	4736.417480	;New Junction
J104	4776.213867	;New Junction
J1040	4731.036621	;New Junction
J1042	4739.566895	;New Junction
J1044	4732.086426	;New Junction
J1046	4727.624512	;New Junction
J1048	4730.150879	;New Junction
J1050	4743.569336	;New Junction
J1052	4742.191895	;New Junction
J1054	4727.919922	;New Junction
J1056	4755.019531	;New Junction
J1058	4746.587891	;New Junction
J106	4771.981445	;New Junction
J1060	4740.780762	;New Junction
J1062	4734.153320	;New Junction
J1064	4738.418945	;New Junction
J1066	4729.297852	;New Junction
J1068	4733.989746	;New Junction
J1070	4719.914551	;New Junction
J1072	4718.307129	;New Junction
J1074	4720.538086	;New Junction
J1076	4727.887207	;New Junction
J1078	4718.865234	;New Junction
J108	4771.358398	;New Junction
J1080	4721.030273	;New Junction
J1082	4724.311035	;New Junction
J1084	4743.569336	;New Junction
J1086	4740.288574	;New Junction
J1088	4733.038086	;New Junction
J1090	4733.104004	;New Junction
J1092	4734.055176	;New Junction
J1094	4721.292969	;New Junction
J1096	4722.572266	;New Junction
J1098	4724.606445	;New Junction
J110	4771.850098	;New Junction
J1100	4719.652344	;New Junction
J1102	4719.881836	;New Junction
J1104	4719.192871	;New Junction
J1106	4720.931641	;New Junction
J1108	4718.274414	;New Junction
J1110	4725.394043	;New Junction
J1112	4709.350586	;New Junction
J1114	4732.152344	;New Junction
J1116	4721.194336	;New Junction
J1118	4721.456543	;New Junction
J112	4771.292969	;New Junction
J1120	4723.327148	;New Junction
J1122	4719.160156	;New Junction
J1124	4717.618164	;New Junction
J1126	4724.311035	;New Junction
J1128	4728.248047	;New Junction
J1130	4728.608887	;New Junction
J1132	4727.395020	;New Junction
J1134	4716.929199	;New Junction
J1136	4719.160156	;New Junction
J1138	4716.076172	;New Junction
J114	4771.981445	;New Junction
J1140	4711.122070	;New Junction
J1142	4713.090820	;New Junction
J1144	4723.359863	;New Junction
J1146	4696.817383	;New Junction
J1148	4711.154785	;New Junction
J1150	4705.577637	;New Junction
J1152	4686.417480	;New Junction
J1154	4703.969727	;New Junction
J1156	4705.905273	;New Junction
J1158	4673.720703	;New Junction
J116	4760.990723	;New Junction
J1160	4683.891113	;New Junction
J1162	4683.727051	;New Junction
J1164	4696.916016	;New Junction
J1166	4714.402832	;New Junction
J1168	4718.373047	;New Junction
J1170	4716.108887	;New Junction
J1172	4712.270508	;New Junction
J1174	4715.682129	;New Junction
J1176	4713.648438	;New Junction
J1178	4714.304688	;New Junction
J118	4754.297852	;New Junction
J1180	4718.110352	;New Junction
J1182	4716.437012	;New Junction
J1184	4728.346191	;New Junction
J1186	4748.129883	;New Junction
J1188	4755.708984	;New Junction
J1190	4749.967285	;New Junction
J1192	4747.966309	;New Junction
J1194	4745.964355	;New Junction
J1196	4750.557617	;New Junction
J1198	4740.944824	;New Junction
J12	4808.530273	;New Junction
J120	4760.170898	;New Junction
J1200	4746.259766	;New Junction
J1202	4742.880859	;New Junction
J1204	4745.275391	;New Junction
J1206	4761.712402	;New Junction
J1210	4736.318848	;Public Safety Building
J1212	4744.816406	;New Junction
J1214	4751.377930	;New Junction
J1216	4751.771484	;New Junction
J1218	4748.359863	;New Junction
J122	4751.935547	;New Junction
J1220	4755.610352	;New Junction
J1222	4739.206055	;New Junction
J1224	4746.259766	;New Junction
J1226	4738.681152	;New Junction
J1228	4740.485840	;New Junction
J1230	4739.271973	;New Junction
J1232	4738.911133	;New Junction
J1234	4738.746582	;New Junction
J1236	4734.481445	;New Junction
J1238	4716.994629	;New Junction
J124	4765.255859	;New Junction
J1240	4714.041992	;New Junction
J1242	4715.485840	;New Junction
J1244	4719.192871	;New Junction
J1246	4718.307129	;New Junction
J1248	4715.189941	;New Junction
J1250	4715.125000	;New Junction
J1252	4713.911133	;Harvest Park N
J1254	4714.009277	;New Junction
J1256	4713.058105	;New Junction
J1258	4713.090820	;New Junction
J126	4765.617188	;New Junction
J1260	4712.565918	;New Junction
J1262	4712.893555	;New Junction
J1264	4714.730957	;New Junction
J1266	4713.812500	;New Junction
J1268	4713.385742	;New Junction
J1270	5019.291504	;New Junction
J1272	5071.981445	;New Junction
J1274	5133.759766	;New Junction
J1276	5125.656250	;New Junction
J1278	5125.885742	;New Junction
J128	4769.881836	;New Junction
J1282	5111.351563	;Calibration point 4
J1284	5127.821289	;New Junction
J1286	5114.009277	;New Junction
J1288	5133.071289	;New Junction
J1290	5110.203125	;New Junction
J1292	5090.977539	;New Junction
J1294	5115.124512	;New Junction
J1296	5094.586426	;New Junction
J1298	5104.199707	;New Junction
J130	4756.036621	;New Junction
J1300	5106.889648	;New Junction
J1302	5093.405273	;New Junction
J1304	5114.435547	;New Junction
J1306	5108.530273	;New Junction
J1310	5108.202148	;New Junction
J1312	4846.620605	;New Junction
J1314	4717.683594	;New Junction
J1316	4716.108887	;New Junction
J1318	4717.454102	;New Junction
J132	4760.301758	;New Junction
J1320	4721.030273	;New Junction
J1322	4716.305664	;New Junction
J1324	4722.867676	;New Junction
J1326	4749.967285	;New Junction
J1328	4749.081543	;New Junction
J1330	4754.199219	;New Junction
J1332	4719.685059	;New Junction
J1334	4720.570801	;New Junction
J1336	4719.652344	;New Junction
J1338	4724.146973	;New Junction
J134	4759.973633	;New Junction
J1340	4724.212402	;New Junction
J1342	4722.145996	;New Junction
J1344	4722.933105	;New Junction
J1346	4720.341309	;New Junction
J1348	4712.368652	;New Junction
J1350	4715.255859	;New Junction
J1352	4711.745605	;Fox Hollow
J1354	4713.254395	;New Junction
J1356	4713.943848	;New Junction
J1358	4711.056641	;Fox Hollow
J136	4762.467285	;New Junction
J1360	4712.335938	;Fox Hollow
J1362	4712.664063	;Fox Hollow
J1364	4713.943848	;Fox Hollow
J1366	4712.368652	;New Junction
J1368	4711.548340	;New Junction
J1370	4713.746582	;New Junction
J1372	4713.713867	;New Junction
J1374	4713.812500	;New Junction
J1376	4698.458008	;New Junction
J1378	4712.598633	;New Junction
J138	4780.577637	;New Junction
J1380	4723.097168	;New Junction
J1382	4722.309570	;Holly Farm Estates A
J1384	4723.359863	;New Junction
J1386	4714.468262	;New Junction
J1388	4717.060547	;New Junction
J1390	4716.961914	;New Junction
J1392	4716.502441	;New Junction
J1394	4716.994629	;New Junction
J1396	4715.978027	;New Junction
J1398	4795.111816	;New Junction
J14	4819.160156	;New Junction
J140	4749.311035	;New Junction
J1400	4794.619629	;Northridge
J1402	4797.210938	;Northridge
J1404	4799.507813	;Northridge
J1406	4809.055176	;New Junction
J1408	4810.892578	;New Junction
J1410	4808.202148	;New Junction
J1412	4810.498535	;New Junction
J1414	4815.813477	;New Junction
J1416	5097.769043	;Maple Bench
J1418	5079.363281	;New Junction
J142	4792.847656	;New Junction
J1422	5053.805664	;New Junction
J1424	5062.139160	;add dummy demand to show flow in Bench pipe
J1426	4711.088867	;New Junction
J1428	4709.219238	;Maple Grove Middle School
J1430	4711.154785	;New Junction
J1432	4707.808105	;Maple Grove Middle School
J1434	4707.972656	;Maple Grove Middle School
J1436	4709.842773	;Maple Grove Middle School
J1438	4709.678711	;Maple Grove Middle School
J144	4792.749023	;New Junction
J1440	4715.944824	;New Junction
J1442	4716.108887	;Maple Grove E
J1444	4716.437012	;Maple Grove E
J1446	4716.863281	;Maple Grove E
J1448	4717.125977	;Maple Grove D
J1450	4715.223145	;Sunrise Ranch C
J1452	4712.139160	;Sunrise Ranch C
J1454	4716.207520	;Sunrise Ranch C
J1456	4709.317871	;Sunrise Ranch C
J1458	4708.891113	;Sunrise Ranch R
J146	4852.887207	;New Junction
J1460	4773.195801	;Magnolia Lane
J1462	4762.893555	;Magnolia Lane
J1464	4761.417480	;New Junction
J1466	4769.685059	;Magnolia Lane
J1468	4842.290039	;Twin Hollow B
J1470	4869.717773	;New Junction
J1472	4868.339844	;New Junction
J1474	4923.425293	;New Junction
J1476	4854.691406	;Twin Hollow C
J1478	4709.711426	;Maple Grove Middle School Lots
J148	4927.198242	;New Junction
J1480	4711.286133	;New Junction
J1484	4709.908203	;New Junction
J1486	4709.514160	;New Junction
J1490	5108.136230	;New Junction
J1492	4723.359863	;New Junction
J1494	4725.656250	;Copperhead Estates
J1496	4725.492188	;Copperhead Estates
J1498	4728.608887	;Mapleton 340 Lake
J150	4939.140137	;New Junction
J1500	4713.484375	;New Junction
J1502	4715.157715	;New Junction
J1504	4721.357910	;New Junction
J1506	4721.030273	;New Junction
J1508	4726.377930	;New Junction
J1510	4727.001465	;New Junction
J1512	4744.160156	;New Junction
J1514	4738.353027	;New Junction
J1516	4800.262695	;Maple Mountain View D
J1518	4843.044922	;Twin Hollow B
J152	4944.061523	;New Junction
J1520	4714.993652	;Harvest Park N
J1522	4714.468262	;Harvest Park N
J1524	4715.583984	;Harvest Park P
J1526	4714.566895	;Harvest Park N
J1528	4714.698242	;New Junction
J1530	4715.583984	;New Junction
J1532	4715.748047	;New Junction
J1534	4717.814941	;New Junction
J1536	4718.897461	;New Junction
J1538	4715.846680	;New Junction
J154	4944.028809	;New Junction
J1540	4716.272949	;New Junction
J1542	4716.437012	;New Junction
J1544	4714.599609	;New Junction
J1546	4715.616699	;Maple Grove D
J1548	4716.108887	;New Junction
J1550	4714.370117	;New Junction
J1552	4717.782227	;New Junction
J1554	4713.024902	;New Junction
J1556	4711.450195	;New Junction
J1558	4712.828125	;New Junction
J156	4940.059082	;New Junction
J1560	4715.091797	;Whiting Cove D
J1562	4711.351563	;New Junction
J1564	4711.318848	;New Junction
J1566	4712.893555	;New Junction
J1568	4710.597168	;New Junction
J1570	4712.335938	;New Junction
J1572	4709.842773	;New Junction
J1574	4712.598633	;New Junction
J1576	4712.401367	;New Junction
J1578	4713.615234	;New Junction
J158	4937.105957	;New Junction
J1580	4714.304688	;Whisper Rock C
J1582	4717.027832	;New Junction
J1584	4714.041992	;New Junction
J1586	4714.009277	;Whiting Cove B
J1588	4798.000000	;New Junction
J1590	4742.782227	;New Junction
J1592	4744.520996	;New Junction
J1594	4742.913574	;New Junction
J1596	4750.360840	;New Junction
J1598	4728.018555	;Hidden Lane Estates
J16	4828.378906	;New Junction
J1600	4731.824219	;Hidden Lane Estates
J1602	4718.307129	;New Junction
J1604	4850.557617	;Twin Hollow D
J1606	4859.448730	;Twin Hollow D
J1608	4906.496094	;Twin Hollow D
J1610	4722.867676	;New Junction
J1612	4718.044922	;Thatchill Estates
J1614	5122.572266	;New Junction
J1616	4963.713867	;New Junction
J162	4938.222168	;New Junction
J1620	5189.534180	;New Junction
J1626	5025.229492	;New Junction
J1628	4840.944824	;New Junction
J1630	4797.178711	;New Junction
J1632	4793.109863	;New Junction
J1634	4713.976074	;New Junction
J1636	4713.123535	;New Junction
J1638	4714.107422	;New Junction
J164	4937.762695	;New Junction
J1640	4708.628418	;New Junction
J1642	4710.006348	;New Junction
J1644	4714.501465	;Harvest Park O
J1646	4715.551270	;Harvest Park O
J1648	4715.452637	;Harvest Park P
J1650	4717.093262	;New Junction
J1652	4736.712402	;New Junction
J1654	4756.036621	;New Junction
J1656	4756.102539	;New Junction
J1658	4713.058105	;New Junction
J166	4936.614258	;New Junction
J1660	4722.998535	;New Junction
J1662	4719.520996	;New Junction
J1664	4720.997070	;New Junction
J1666	4715.059082	;New Junction
J1668	4699.048828	;New Junction
J1670	4713.090820	;New Junction
J1672	4727.263672	;New Junction
J1674	4789.271973	;New Junction
J1676	4744.356934	;New Junction
J1678	4711.811035	;New Junction
J168	4930.741699	;New Junction
J1680	4712.664063	;New Junction
J1682	4710.498535	;New Junction
J1684	4708.596191	;New Junction
J1686	4752.460938	;New Junction
J1688	4738.188965	;New Junction
J1690	4765.157715	;New Junction
J1692	4783.038086	;New Junction
J1694	4873.622070	;
J1696	4873.589355	;New Junction
J1698	4918.733398	;Hidden Hollow Cove B
J170	4922.736328	;New Junction
J1700	4931.627441	;
J1702	4741.010742	;Seal Well Upstream
J1704	4741.831055	;Seal Well downstream
J1706	4741.732422	;
J1708	4812.500000	;Carnesecca upstream
J1710	4768.536621	;Westwood upstream
J1712	5018.569824	;Crowd upstream
J1714	4784.800000	;
J1716	4759.500000	;
J1718	4759.600000	;
J172	4925.360840	;New Junction
J1720	4775.300000	;
J1722	4786.826955	;
J1724	4814.406579	;
J1726	4814.391665	;
J1732	4716.633789	;added per 1/26/21 review with City
J1734	4737.631348	;added per 1/26/21 review with City
J1736	4727.460938	;added per 1/26/21 review with City
J1738	5082.020996	;added per 1/26/21 review with City
J174	4923.392578	;New Junction
J1740	4828.068120	;New Junction
J1742	4742.000000	;Mapleton Heights
J1744	4742.000000	;Mapleton Heights
J1746	4743.000000	;Mapleton Heights
J1748	4746.000000	;Mapleton Heights
J1750	4744.000000	;Mapleton Heights
J1752	4823.000000	;Mapleton Heights
J1754	4836.239383	;
J1756	4809.088379	;Carnesecca well to system
J1758	4809.219238	;
J176	5031.299316	;New Junction
J1760	4809.251953	;Carnesecca well to Upper zone
J1764	4714.566895	;North Park
J1772	4727.034180	;Mapleton City Park
J1776	4716.174316	;Ira Allen Park
J1778	4713.188965	;8th West Basin
J178	4937.631348	;New Junction
J1780	4713.620000	;Wing Point Park
J1782	4740.387207	;Calibration point 1
J1784	4809.580078	;Calibration point 2
J1786	4762.171875	;Calibration point 3
J1788	4866.831055	;Calibration point 5
J1790	4809.678711	;Calibration point 6
J1792	4858.759766	;Calibration point 7
J1794	4710.925293	;Calibration point 9
J1796	4717.290039	;Maple Grove D
J1798	4716.404297	;Harvest Park P
J18	4830.282227	;New Junction
J1800	4715.879395	;Harvest Park P
J1804	4790.452637	;Lindley
J1812	4815.448481	;New
J1814	4817.979004	;Collard
J1816	4814.604152	;Dalllins Subdivision A
J1818	4813.124119	;Dalllins Subdivision A
J182	4896.555176	;New Junction
J1820	4811.653662	;Dalllins Subdivision A
J1822	4797.272746	;New
J1824	4798.480966	;Maple Mountain View D
J1826	4793.241211	;Mee Estates
J1828	4795.126237	;New
J1830	4790.387207	;Kent Evans
J1832	4800.688965	;Zimmerman
J1834	4868.930664	;Maple Hills Estates A
J1836	4885.137695	;Maple Hills Estates A
J1838	4817.814941	;Vineyard @ Maple Canyon
J184	4886.286133	;New Junction
J1840	4764.009277	;Diamond Corner
J1842	4768.471191	;New
J1844	4767.355469	;Diamond Fields
J1846	4767.322754	;Diamond Fields
J1848	4859.022461	;New
J1850	4859.022461	;Ball Subdivision
J1852	4818.962891	;New
J1854	4816.502441	;Kendall
J1856	4766.469727	;Maple Haven
J1858	4740.419922	;Sugar Dance
J186	4872.539551	;New Junction
J1860	4747.244141	;New
J1862	4746.883301	;Maple View Estates B
J1864	4735.433105	;Whitehorse Estates
J1866	4738.058105	;Whitehorse Estates
J1868	4738.681152	;Whitehorse Estates
J1870	4742.355469	;New
J1872	4741.895996	;The Estates at Mapleton
J1874	4743.012207	;The Estates at Mapleton
J1876	4746.666110	;New
J1878	4746.423828	;New
J188	4909.842773	;New Junction
J1880	4743.963379	;Hardman
J1882	4743.930176	;New
J1884	4742.191895	;Blackett
J1886	4729.749068	;Hidden Lane Estates
J1888	4784.383301	;Lindley
J1890	4787.992188	;Lindley
J1892	4789.074707	;Lindley
J1894	4741.338867	;Perrero
J1896	4719.767669	;New
J1898	4719.729283	;New
J190	4935.761230	;New Junction
J1900	4718.307129	;Francis
J1902	4719.192871	;Francis E
J1904	4722.814051	;Holly Farm Estates A
J1906	4714.797665	;Maple Valley Estates
J1908	4719.980469	;Whiting Farm
J1910	4717.322754	;Whiting Farm
J1912	4718.405762	;Whiting Farm
J1914	4716.830566	;Whiting Farm
J1916	4717.552734	;Whiting Farm
J1918	4724.376465	;Whiting Farm C
J192	4784.383301	;New Junction
J1920	4720.636230	;New
J1922	4722.676970	;Walter Farms
J1924	4732.906738	;New
J1926	4729.757324	;Walter Farms
J1928	4718.865234	;Whiting Farm B
J1930	4718.865234	;Whiting Farm B
J1932	4716.535156	;Whiting Farm B
J1934	4715.321289	;Whiting Farm B
J1936	4715.288574	;Whiting Farm B
J1938	4716.042969	;Whiting Farm B
J1940	4714.337402	;New
J1942	4713.582520	;Bryson Strong
J1944	4714.009277	;Bentley Brook B
J1946	4713.779785	;New
J1948	4713.845215	;Bentley Brook
J1950	4712.401367	;Bluth
J1952	4712.762207	;Whisper Rock D
J1954	4712.860840	;Whisper Rock D
J1956	4712.992188	;Whisper Rock D
J1958	4712.926758	;Whisper Rock C
J196	4790.059082	;New Junction
J1962	4711.679688	;Fox Hollow
J1964	4711.318848	;Fox Hollow Townhomes
J1966	4709.842773	;Dignity Care
J1968	4711.187500	;Dignity Care
J1970	4707.841309	;Dignity Care
J1972	4711.581055	;Alvery Dr Office Warehouse
J1974	4709.416016	;New
J1976	4709.416016	;New
J1978	4710.531738	;Larsen
J198	4797.867676	;New Junction
J1980	4710.203613	;Larsen
J1982	4709.711426	;Larsen
J1984	4712.893555	;New
J1986	4710.695313	;Larsen
J1988	4714.041992	;New
J1990	4710.892578	;Larsen
J1992	4716.076172	;New
J1994	4712.565918	;Larsen
J1996	4717.388672	;Payne B
J1998	4716.633789	;Payne B
J20	4831.594727	;New Junction
J200	4872.408203	;New Junction
J2000	4715.189941	;Payne B
J2002	4716.535156	;Payne B
J2004	4715.354492	;Payne A
J2006	4719.094727	;Payne B
J2008	4725.853027	;New
J2010	4719.324219	;Whiting Farm
J2012	4722.736328	;Whiting Farm C
J2014	4721.784668	;Whiting Farm B
J2016	4724.704590	;Whiting Farm C
J2018	4733.005371	;New
J202	4885.695801	;New Junction
J2020	4734.251953	;Whitehorse Estates
J2022	4743.108917	;New
J2024	4796.653809	;Mee Estates
J2026	4885.000000	;Maple Hills Estates A
J2028	4719.305603	;Thatchill Estates
J2030	4724.160789	;Copperhead Estates
J2032	4713.109182	;Harvest Park M
J2034	4712.949181	;Harvest Park M
J2036	4714.898330	;Harvest Park O
J2038	4715.563621	;Harvest Park O
J204	4859.809570	;New Junction
J2040	4714.725931	;Harvest Park N
J2042	4714.764884	;Harvest Park N
J2044	4715.240387	;Harvest Park O
J2046	4715.184722	;Harvest Park O
J2048	4712.729492	;New
J2050	4709.842773	;Whiting Cove E
J2052	4710.039551	;Whiting Cove E
J2054	4711.581055	;Whiting Cove E
J2056	4714.107422	;New
J2058	4712.434570	;Whiting Cove F
J206	4830.085449	;New Junction
J2060	4714.801687	;Whiting Cove D
J2062	4714.027119	;New
J2064	4713.241168	;Whiting Cove B
J2066	4715.536952	;Whiting Cove B
J2068	4711.964840	;Emerald Estates D
J2070	4712.598633	;New
J2072	4711.909180	;Young
J2074	4720.800781	;New
J2076	4720.505371	;New
J2078	4718.208496	;Maple Fields
J208	4878.018066	;New Junction
J2080	4718.865234	;Maple Fields
J2082	4719.881836	;New
J2084	4719.192871	;Harness
J2086	4721.259766	;New
J2088	4720.045898	;Sherman Farms
J2090	4725.032715	;New
J2092	4724.311035	;Valley View Estates C
J2094	4751.902832	;Maple Vale A
J2096	4756.200684	;Maple Vale A
J2098	4755.732724	;New
J210	4940.000000	;4940 at top of hill
J2100	4790.617188	;Preserve E
J2102	4787.007813	;Preserve E
J2104	4801.574707	;Preserve E
J2108	4710.597168	;New
J2110	4709.580078	;Harvest Park Office
J2112	4710.761230	;New
J2114	4710.958008	;Sunrise Ranch A
J2116	4715.223145	;Sunrise Ranch A
J2118	4705.807129	;Sunrise Ranch S
J2120	4706.036621	;Sunrise Ranch L
J2122	4704.691406	;Sunrise Ranch L
J2124	4711.581055	;Sunrise Ranch C
J2126	4716.115135	;Sunrise Ranch D
J2128	4716.010813	;Sunrise Ranch D
J2130	4715.873868	;Sunrise Ranch D
J2132	4715.605260	;Sunrise Ranch D
J2134	4715.846680	;Sunrise Ranch D
J2136	4715.485840	;Sunrise Ranch D
J2138	4712.007813	;Sunrise Ranch E
J214	4854.888672	;New Junction
J2140	4713.385742	;Sunrise Ranch F
J2142	4715.755866	;Sunrise Ranch H
J2144	4711.318848	;Sunrise Ranch R
J2146	4710.072266	;Sunrise Ranch I
J2148	4709.547363	;Sunrise Ranch I
J2150	4711.679688	;Sunrise Ranch I
J2152	4710.203613	;Sunrise Ranch T
J2154	4710.761230	;Sunrise Ranch G
J2156	4709.810059	;Sunrise Ranch G
J2158	4708.497559	;Sunrise Ranch G
J216	4823.950195	;New Junction
J2160	4705.183594	;Sunrise Ranch G
J2162	4706.791504	;Sunrise Ranch G
J2164	4713.287598	;Sunrise Ranch T
J2166	4709.633525	;Sunrise Ranch R
J2168	4711.975098	;Sunrise Ranch P
J2170	4712.860840	;Sunrise Ranch O
J2172	4715.387207	;Sunrise Ranch M
J2174	4715.879395	;Sunrise Ranch M
J2176	4715.387207	;Sunrise Ranch G
J2178	4710.892578	;Sunrise Ranch N
J218	4846.555176	;New Junction
J2180	4711.187500	;Sunrise Ranch N
J2182	4715.944824	;Maple Grove G
J2184	4719.783203	;Maple Grove G
J2186	4710.400391	;Sunrise Ranch Q
J2188	4714.764160	;Maple Grove G
J2190	4716.207520	;New
J2192	4716.516232	;Maple Grove D
J2194	4714.600016	;Maple Grove F
J2196	4716.640016	;Skyridge Estates
J22	4836.023926	;New Junction
J220	4874.967285	;New Junction
J2206	4748.000000	;Mapleton Heights
J2208	4749.000000	;Mapleton Heights
J2210	4747.000000	;Mapleton Heights
J2212	4740.000000	;Mapleton Heights
J2214	4740.000000	;New
J2216	4747.000000	;New
J2218	4755.000000	;Mapleton Heights
J222	4875.000000	;New Junction
J2222	4747.834961	;Mapleton Heights C
J2224	4755.000000	;Mapleton Heights C
J2226	4743.000000	;Mapleton Heights B
J2228	4750.000000	;Mapleton Heights B
J2230	4748.000000	;Mapleton Heights B
J2232	4749.967285	;Mapleton Heights C
J2234	4756.000000	;Mapleton Heights C
J2236	4752.000000	;Mapleton Heights C
J2238	4758.923828	;Mapleton Heights C
J224	4824.376465	;New Junction
J2240	4757.000000	;Mapleton Heights C
J2242	4749.311035	;Mapleton Heights C
J2244	4750.000000	;Mapleton Heights D
J2246	4747.506836	;Mapleton Heights D
J2248	4764.000000	;New
J2250	4756.000000	;Mapleton Village A
J2252	4764.000000	;Mapleton Village A
J2254	4770.000000	;Mapleton Village A
J2256	4752.000000	;Mapleton Village A
J2258	4755.000000	;Mapleton Village A
J226	4819.881836	;New Junction
J2260	4754.000000	;Mapleton Village A
J2262	4756.000000	;Mapleton Village A
J2264	4756.000000	;Mapleton Village A
J2266	4755.000000	;Mapleton Village A
J2268	4768.000000	;Mapleton Village A
J2270	4757.415039	;Mapleton Village A
J2272	4756.000000	;Mapleton Village A
J2274	4758.000000	;Mapleton Village A
J2276	4755.000000	;Mapleton Village A
J2278	4757.000000	;Mapleton Village A
J228	4838.123535	;New Junction
J2280	4760.433105	;Mapleton Village A
J2282	4761.000000	;Mapleton Village A
J2284	4759.000000	;Mapleton Village B
J2286	4760.000000	;Mapleton Village C
J2290	4762.000000	;Mapleton Village B
J230	4842.814941	;New Junction
J2306	4779.000000	;Mapleton Village B
J2308	4795.000000	;Mapleton Village B
J2310	4788.000000	;Mapleton Village B
J232	4797.801758	;New Junction
J2322	4812.000000	;Mapleton Village B
J2324	4822.000000	;Mapleton Village B
J2326	4826.000000	;Mapleton Village B
J2330	4799.409668	;New
J2332	4848.505003	;New
J2334	4845.949844	;Twin Hollow B
J2336	4840.190430	;Twin Hollow B
J2338	4901.249548	;Hidden Hollow A
J234	4799.507813	;New Junction
J2340	4832.939453	;Twin Hollow B
J2342	4848.458008	;Twin Hollow F
J2344	4865.583984	;Twin Hollow F
J2346	4880.216309	;Twin Hollow F
J2348	4847.357945	;Twin Hollow C
J2350	4897.506836	;Twin Hollow D
J2352	4892.625718	;Twin Hollow D
J2354	4874.737305	;Twin Hollow B
J2356	4860.039063	;Twin Hollow D
J2358	4881.167969	;Twin Hollow E
J236	4799.803223	;New Junction
J2360	4905.675781	;Hidden Hollow Cove B
J2366	4918.635254	;Hidden Hollow Cove B
J2368	4858.333008	;Hidden Hollow A
J2370	4936.646973	;Hidden Hollow Cove C
J2372	4970.700000	;Hidden Hollow Cove D
J2374	4985.269043	;Hidden Hollow Cove D
J2376	4932.349121	;Hidden Hollow Cove D
J2378	4929.427277	;Hidden Hollow Cove C
J238	4805.577637	;New Junction
J2380	5030.000000	;Maple Bench
J2382	4908.759766	;Clegg Canyon A
J2384	4910.859375	;Clegg Canyon A
J2386	4903.204487	;New
J2390	4713.877930	;Grindstone Estates
J2392	4714.566895	;Grindstone Estates
J2394	4713.943848	;Grindstone Estates
J2396	4712.729492	;Grindstone Estates
J2398	4713.484375	;Grindstone Estates
J24	4832.152344	;New Junction
J240	4773.950195	;New Junction
J2400	4712.828125	;Grindstone Estates
J2402	4712.401367	;Grindstone Estates
J2404	4711.056641	;Sunrise Ranch A
J2406	4715.518555	;Sunrise Ranch B-1
J2408	4715.387207	;Sunrise Ranch B
J2410	4712.937015	;Sunrise Ranch B-1
J2412	4771.883301	;Garfield Estates
J2416	4713.191034	;Whisper Rock C
J2418	4708.923828	;Emerald Corner
J242	4769.422363	;New Junction
J2420	4737.237793	;New
J2422	4736.187500	;Watkins
J2424	4756.167969	;Whiting Fields
J2428	4759.908203	;New
J2432	5087.756636	;Maple Bench
J2434	5022.244141	;Maple Bench
J2436	4887.696777	;Maple Bench
J2438	4842.191895	;Maple Bench
J244	4764.074707	;New Junction
J2440	5073.064453	;Maple Bench
J2442	4918.537109	;Maple Bench
J2444	4910.104980	;Maple Bench
J2446	4915.000000	;Maple Bench
J2448	4915.000000	;Maple Bench
J2450	5101.345215	;Maple Bench
J2452	5001.377930	;Maple Bench
J2454	4976.968262	;Maple Bench
J2456	4864.862305	;Maple Bench
J246	4759.612793	;New Junction
J2460	4713.418945	;Sunrise Ranch J
J2462	4711.778320	;Sunrise Ranch J
J2464	4714.829102	;Sunrise Ranch J
J2466	4707.578613	;Sunrise Ranch K
J2468	4702.165527	;Sunrise Ranch K
J2470	4712.893555	;Sunrise Ranch K
J2472	4682.808105	;Sunrise Ranch X
J2476	4956.000000	;Mapleton Village bench line
J2478	4956.000000	;Mapleton Village bench line
J248	4763.320313	;New Junction
J2480	4922.834473	;Hidden Hollow Cove D
J2482	4862.270508	;Hidden Hollow A
J2484	4920.000000	;Maple Hills Estates A high elevation
J2486	4923.786133	;Clegg Canyon connection
J2488	4902.887207	;Clegg Canyon connection
J2490	4923.000000	;Clegg Canyon
J2492	4923.000000	;Clegg Canyon
J2494	4903.000000	;Clegg Canyon
J2496	4903.000000	;Clegg Canyon
J2498	4900.000000	;Clegg 400 N PRV Down
J250	4774.212891	;New Junction
J2500	4900.000000	;Clegg 400 N PRV Up
J2502	4770.000000	;Garfield Estates
J2504	4773.000000	;Garfield Estates Lots 3-4
J2506	4765.000000	;Garfield Estates Lot 2
J2508	4788.000000	;Mountain View Point
J2512	4765.000000	;Mapleton Heights Plat D
J2514	4762.000000	;Mapleton Heights Plat #
J2516	4898.000000	;Eagle Court PRV
J2518	4764.337402	;Mapleton Heights future estimated demand
J252	4780.314941	;New Junction
J2520	4759.284668	;Mapleton Heights future
J2522	4764.009277	;Mapleton Heights future
J2524	4777.493652	;Mapleton Heights future
J2526	4799.442383	;Mapleton Heights future estimated demand
J2528	4800.000000	;Mapleton Heights future
J2532	4786.546842	;Mapleton Heights FUTURE estimated demand
J2536	4822.000000	;Mapleton Heights future PRV down
J2538	4822.000000	;Mapleton Heights future PRV up
J254	4766.404297	;New Junction
J2542	4800.000000	;800 W PRV down
J2544	4800.000000	;800 W PRV up
J2552	4820.000000	;Wren Meadows Plat A
J2554	4816.000000	;Wren Meadows Plat A
J2556	4752.000000	;Whiting FIelds
J2558	4751.000000	;Whiting Fields
J256	4756.725586	;New Junction
J2560	4732.874023	;
J2562	4730.773926	;
J2564	4728.116699	;
J2566	4728.608887	;
J2568	4728.412109	;Whiting Homestead Future
J2570	4727.395020	;Whiting Homestead Future
J2572	4733.136719	;Whiting Homestead Future
J2574	4730.150879	;Whiting Homestead Future
J2576	4960.203613	;Hidden Hollow Cove Plat E
J2578	4984.350586	;Hidden Hollow Cove Plat E
J258	4774.278320	;New Junction
J2580	4983.595703	;Hidden Hollow Cove Plat E
J2582	4932.151855	;
J2592	4932.177227	;Mapleton Heights future
J2596	4800.000000	;Perry Hollow mid-block
J26	4835.334961	;New Junction
J260	4785.006348	;New Junction
J2610	4716.437012	;Hjorth
J2612	4715.387207	;Hjorth
J2614	4715.452637	;Hjorth
J2616	4714.599609	;Hjorth
J2618	4820.000000	;
J262	4788.057617	;New Junction
J2620	4888.188965	;
J2622	4925.000000	;Quiet Meadow high elevation of home
J2624	4819.513456	;New Junction
J2626	4860.152428	;New Junction
J2628	4917.622553	;Clegg Canyon A
J2630	4933.280816	;Clegg Canyon A
J2636	4715.487426	;Pommerening
J264	4767.355469	;New Junction
J266	4777.657227	;New Junction
J268	4775.787598	;New Junction
J270	4779.429199	;New Junction
J272	4771.358398	;New Junction
J274	4777.525879	;New Junction
J276	4774.409668	;New Junction
J278	4776.476563	;New Junction
J28	4832.217773	;New Junction
J280	4785.104980	;New Junction
J282	4777.559082	;New Junction
J284	4701.837402	;New Junction
J286	4714.632813	;New Junction
J288	4718.471191	;New Junction
J290	4718.635254	;New Junction
J292	4716.305664	;Harts Park
J294	4718.733887	;New Junction
J296	4733.497559	;New Junction
J298	4713.549805	;New Junction
J30	4798.490723	;New Junction
J300	4718.635254	;New Junction
J302	4715.026367	;New Junction
J304	4717.749512	;New Junction
J306	4718.996094	;New Junction
J308	4717.814941	;New Junction
J310	4733.267578	;New Junction
J312	4734.022461	;New Junction
J314	4733.661133	;New Junction
J316	4734.416016	;New Junction
J318	4736.286133	;New Junction
J32	4790.583984	;New Junction
J320	4743.897461	;New Junction
J322	4739.534180	;New Junction
J324	4730.511719	;New Junction
J326	4739.402832	;New Junction
J328	4732.513184	;New Junction
J330	4736.122070	;New Junction
J332	4736.220215	;New Junction
J334	4726.640625	;New Junction
J336	4731.069824	;New Junction
J338	4721.719238	;New Junction
J34	4810.137695	;New Junction
J340	4713.484375	;New Junction
J342	4738.976074	;New Junction
J344	4739.074707	;New Junction
J346	4731.332031	;New Junction
J348	4739.140625	;New Junction